/*--------------------------------*- C++ -*----------------------------------*\
| =========                 |                                                 |
| \\      /  F ield         | OpenFOAM: The Open Source CFD Toolbox           |
|  \\    /   O peration     | Version:  v2006                                 |
|   \\  /    A nd           | Website:  www.openfoam.com                      |
|    \\/     M anipulation  |                                                 |
\*---------------------------------------------------------------------------*/
FoamFile
{
    version     2.0;
    format      ascii;
    class       dictionary;
    location    "system";
    object      controlDict;
}
// * * * * * * * * * * * * * * * * * * * * * * * * * * * * * * * * * * * * * //

application     	surfaceFlowFOAM;

startFrom       	startTime;

startTime       	0;

stopAt          	endTime;

endTime         	18000;

deltaT          	0.001;

writeControl    	adjustableRunTime;

writeInterval   	300;

purgeWrite      	0;

writeFormat     	ascii;

writePrecision  	6;

writeCompression 	uncompressed;

timeFormat      	general;

timePrecision   	6;

runTimeModifiable 	true;

adjustTimeStep  	true;

maxDeltaT       	1;

functions
{
    observationLocations
    {
        type            		probes;
        functionObjectLibs 		("libsampling.so");
        enabled         		true;
        writeControl   			timeStep;
        writeInterval  			10;
        interpolationScheme 	cellPointFace;
        probeLocations
        (
            (0.5 400 0.5)
        );
        fields
        (
           U 
           h   
        );
    }
}

libs ("imperviousSurfaceFlowBC.so");

// ************************************************************************* //
