/*--------------------------------*- C++ -*----------------------------------*\
| =========                 |                                                 |
| \\      /  F ield         | OpenFOAM: The Open Source CFD Toolbox           |
|  \\    /   O peration     | Version:  v2006                                 |
|   \\  /    A nd           | Website:  www.openfoam.com                      |
|    \\/     M anipulation  |                                                 |
\*---------------------------------------------------------------------------*/
FoamFile
{
    version     2.0;
    format      ascii;
    class       volScalarField;
    location    "0";
    object      hs;
}
// * * * * * * * * * * * * * * * * * * * * * * * * * * * * * * * * * * * * * //
dimensions      [0 1 0 0 0 0 0];

internalField   uniform 1e-8;

boundaryField
{
	inlet
    {
        type            imperviousSurfaceFlowBC;
        value			uniform 1e-8;
    }
    noFlow
    {
        type            imperviousSurfaceFlowBC;
        value			uniform 1e-8;
    }
	outlet
    {
        type            fixedGradient;
        gradient		uniform 0.0;
    }
    defaultFaces
    {
        type            empty;
    }
}


// ************************************************************************* //
