/*--------------------------------*- C++ -*----------------------------------*\
| =========                 |                                                 |
| \\      /  F ield         | OpenFOAM: The Open Source CFD Toolbox           |
|  \\    /   O peration     | Version:  v2006                                 |
|   \\  /    A nd           | Website:  www.openfoam.com                      |
|    \\/     M anipulation  |                                                 |
\*---------------------------------------------------------------------------*/
FoamFile
{
    version     2.0;
    format      ascii;
    class       surfaceScalarField;
    location	"0";
    object      qO;
}
// * * * * * * * * * * * * * * * * * * * * * * * * * * * * * * * * * * * * * //

dimensions      [0 2 -1 0 0 0 0];

internalField   uniform	0.0;

boundaryField
{
	inlet
    {
        type            calculated;
        value			uniform 0.0;
    }
    noFlow
    {
        type            calculated;
        value			uniform 0.0;
    }
	outlet
    {
        type            calculated;
        value			uniform 0.0;
    }
    defaultFaces
    {
        type            empty;
    }
}

// ************************************************************************* //
